*HEADING
cubit(/4q4/Desktop/JamesAOP/Meshes/RookDwellMesh_80L_merged.inp): 09/02/2025: 19
version: 16.18.1
**
********************************** P A R T S **********************************
*PART, NAME=Part-Default
**
********************************** N O D E S **********************************
*NODE, NSET=ALLNODES
       1,   -3.810000e+01,   -4.665904e-15,    0.000000e+00
       2,   -3.782221e+01,   -4.592448e+00,    0.000000e+00
       3,   -3.699288e+01,   -9.117927e+00,    0.000000e+00
       4,   -3.562412e+01,   -1.351045e+01,    0.000000e+00
       5,   -3.373587e+01,   -1.770595e+01,    0.000000e+00
       6,   -3.135569e+01,   -2.164327e+01,    0.000000e+00
       7,   -2.851826e+01,   -2.526497e+01,    0.000000e+00
       8,   -2.526497e+01,   -2.851826e+01,    0.000000e+00
       9,   -2.164327e+01,   -3.135569e+01,    0.000000e+00
      10,   -1.770595e+01,   -3.373587e+01,    0.000000e+00
      11,   -1.351045e+01,   -3.562412e+01,    0.000000e+00
      12,   -9.117927e+00,   -3.699288e+01,    0.000000e+00
      13,   -4.592448e+00,   -3.782221e+01,    0.000000e+00
      14,   -6.998856e-15,   -3.810000e+01,    0.000000e+00
      15,    4.592448e+00,   -3.782221e+01,    0.000000e+00
      16,    9.117927e+00,   -3.699288e+01,    0.000000e+00
      17,    1.351045e+01,   -3.562412e+01,    0.000000e+00
      18,    1.770595e+01,   -3.373587e+01,    0.000000e+00
      19,    2.164327e+01,   -3.135569e+01,    0.000000e+00
      20,    2.526497e+01,   -2.851826e+01,    0.000000e+00
** ... 7352 like lines cut
**
********************************** E L E M E N T S ****************************
*ELEMENT, TYPE=C3D8R, ELSET=EB1
       1,    3903,    3902,    3941,    3923,     244,     245,     277,     264
       2,    3923,    3922,    3921,    3903,     264,     265,     263,     244
       3,    3920,    3921,    3922,    3924,     262,     263,     265,     266
       4,    3919,    3920,    3924,    3925,     261,     262,     266,     267
       5,    3918,    3919,    3925,    3926,     260,     261,     267,     268
       6,    3917,    3918,    3926,    3927,     259,     260,     268,     269
       7,    3916,    3917,    3927,    3928,     258,     259,     269,     270
       8,    3915,    3916,    3928,    3929,     257,     258,     270,     271
       9,    3914,    3915,    3929,    3930,     256,     257,     271,     272
      10,    3913,    3914,    3930,    3931,     255,     256,     272,     273
      11,    3912,    3913,    3931,    3932,     254,     255,     273,     274
      12,    3911,    3912,    3932,    3933,     253,     254,     274,     275
      13,    3910,    3911,    3933,    3934,     252,     253,     275,     276
      14,    3909,    3910,    3934,    3935,     251,     252,     276,     283
      15,    3908,    3909,    3935,    3936,     250,     251,     283,     282
      16,    3907,    3908,    3936,    3937,     249,     250,     282,     281
      17,    3906,    3907,    3937,    3938,     248,     249,     281,     280
      18,    3905,    3906,    3938,    3939,     247,     248,     280,     279
      19,    3904,    3905,    3939,    3940,     246,     247,     279,     278
      20,    3902,    3904,    3940,    3941,     245,     246,     278,     277
** ... 5428 like lines cut
**
********************************** P R O P E R T I E S ************************
*SOLID SECTION, ELSET=EB1, MATERIAL=Default-Steel
**
*END PART
**
**
**
********************************** E N D   P A R T S **********************************
**
**
********************************** A S S E M B L Y ************************************
**
*ASSEMBLY, NAME=ASSEMBLY1
**
*INSTANCE, NAME=Part-Default_1, PART=Part-Default
*END INSTANCE
**
*END ASSEMBLY
**
**
**
*MATERIAL, NAME = Default-Steel
*ELASTIC, TYPE=ISOTROPIC
2.068000e+05, 2.900000e-01
*DENSITY
7.000000e-06
*CONDUCTIVITY,TYPE=ISO
4.500000e-02
*SPECIFIC HEAT
5.000000e+02
**
**
************************************** H I S T O R Y *************************************
**
*PREPRINT
**
**************************************** S T E P 1 ***************************************
*STEP,INC=100,NAME=Default Set
**
*STATIC
1, 1, 1e-05, 1
**
**
**
**
*END STEP
